@<TRIPOS>MOLECULE
HOH
    3     2     1     0     0
SMALL
bcc


@<TRIPOS>ATOM
      1 O           -0.2440     1.4870     0.0200 oh         1 HOH      -0.785000
      2 H            0.7240     1.4800    -0.0260 ho         0 HOH       0.392000
      3 H1          -0.5230     1.3540    -0.8990 ho         0 HOH       0.392000
@<TRIPOS>BOND
     1     1     2 1   
     2     1     3 1   
@<TRIPOS>SUBSTRUCTURE
     1 HOH         1 TEMP              0 ****  ****    0 ROOT
