@<TRIPOS>MOLECULE
UNL
    6     5     1     0     0
SMALL
bcc


@<TRIPOS>ATOM
      1 C           -1.9700     1.8930     0.0010 c3         1 UNL       0.116700
      2 H           -1.7340     2.7590    -0.6220 h1         1 UNL       0.028700
      3 H1          -2.4420     1.1140    -0.6030 h1         1 UNL       0.028700
      4 H2          -2.6520     2.1960     0.7990 h1         1 UNL       0.028700
      5 H3          -0.1950     1.1270    -0.1530 ho         1 UNL       0.396000
      6 O           -0.7800     1.3880     0.5780 oh         1 UNL      -0.598800
@<TRIPOS>BOND
     1     1     2 1   
     2     1     3 1   
     3     1     4 1   
     4     1     6 1   
     5     5     6 1   
@<TRIPOS>SUBSTRUCTURE
     1 UNL         1 TEMP              0 ****  ****    0 ROOT
